Version 4
SHEET 1 880 680
WIRE 112 -16 64 -16
WIRE 176 -16 112 -16
WIRE 64 64 64 -16
WIRE 432 64 304 64
WIRE 752 64 512 64
WIRE 304 192 304 64
WIRE 544 192 304 192
WIRE 64 208 64 144
WIRE 160 208 64 208
WIRE 752 208 752 64
WIRE 752 208 608 208
WIRE 544 224 480 224
WIRE 160 240 160 208
WIRE 64 272 64 208
WIRE 480 288 480 224
WIRE 752 320 752 208
WIRE 304 368 304 192
WIRE 64 496 64 352
WIRE 128 496 64 496
WIRE 160 496 128 496
WIRE 304 528 304 448
WIRE 480 528 480 368
WIRE 752 528 752 400
FLAG 112 -16 +15V
FLAG 128 496 -15V
FLAG 576 176 +15V
FLAG 576 240 -15V
FLAG 304 528 0
FLAG 480 528 0
FLAG 752 528 0
FLAG 160 240 0
SYMBOL voltage 64 48 R0
WINDOW 123 0 0 Left 2
WINDOW 39 0 0 Left 2
SYMATTR InstName V1
SYMATTR Value 15
SYMBOL voltage 64 256 R0
WINDOW 123 0 0 Left 2
WINDOW 39 0 0 Left 2
SYMATTR InstName V2
SYMATTR Value 15
SYMBOL Opamps\\UniversalOpamp2 576 208 R0
SYMATTR InstName U1
SYMBOL current 304 368 R0
WINDOW 123 0 0 Left 2
WINDOW 39 0 0 Left 2
SYMATTR InstName I1
SYMATTR Value PULSE(0 1n .1 .01 .01 .2 .4 4)
SYMBOL res 528 80 M270
WINDOW 0 32 56 VTop 2
WINDOW 3 0 56 VBottom 2
SYMATTR InstName R1
SYMATTR Value 10MEG
SYMBOL res 736 416 M180
WINDOW 0 36 76 Left 2
WINDOW 3 36 40 Left 2
SYMATTR InstName R2
SYMATTR Value 10K
SYMBOL voltage 480 272 R0
WINDOW 123 0 0 Left 2
WINDOW 39 0 0 Left 2
SYMATTR InstName V3
SYMATTR Value 1m
TEXT 30 552 Left 2 !.tran 1
